ELEMENTS
 H   O    C   N
END
SPECIES
O2  KERO  CO  CO2  H2O  N2
END
REACTIONS
KERO + 10 O2 => 10 CO + 10 H2O 800000000000.0011 0.0 41500.0
FORD /KERO 0.550/
FORD /O2 0.900/
CO + 0.5 O2 <=> CO2                  45000000000.0 0.0 20000.0
END
